<?xml version="1.0" encoding="UTF-8"?>

<!-- generated on 2025-05-20 19:55:16 by Eclipse SUMO netedit Version 1.23.1
<neteditConfiguration xmlns:xsi="http://www.w3.org/2001/XMLSchema-instance" xsi:noNamespaceSchemaLocation="http://sumo.dlr.de/xsd/neteditConfiguration.xsd">

    <input>
        <sumo-net-file value="C:\Users\trose\Workspace\Fellowship &apos;25 Personal\2025-Fellowship-Personal\SUMO\Built Sims\3x3 city block 1\threebythreecityblock1.net.xml"/>
    </input>

    <output>
        <output-file value="C:\Users\trose\Workspace\Fellowship &apos;25 Personal\2025-Fellowship-Personal\SUMO\Built Sims\3x3 city block 1\threebythreecityblock1.net.xml"/>
    </output>

    <processing>
        <geometry.min-radius.fix.railways value="false"/>
        <geometry.avoid-overlap value="false"/>
        <geometry.max-grade.fix value="false"/>
        <offset.disable-normalization value="true"/>
        <lefthand value="0"/>
    </processing>

    <junctions>
        <no-turnarounds value="true"/>
        <junctions.corner-detail value="5"/>
        <junctions.limit-turn-speed value="5.50"/>
        <rectangular-lane-cut value="0"/>
    </junctions>

    <pedestrian>
        <walkingareas value="0"/>
    </pedestrian>

</neteditConfiguration>
-->

<net version="1.20" junctionCornerDetail="5" limitTurnSpeed="5.50" avoidOverlap="0" xmlns:xsi="http://www.w3.org/2001/XMLSchema-instance" xsi:noNamespaceSchemaLocation="http://sumo.dlr.de/xsd/net_file.xsd">

    <location netOffset="0.00,0.00" convBoundary="0.00,0.00,750.00,750.00" origBoundary="-10000000000.00,-10000000000.00,10000000000.00,10000000000.00" projParameter="!"/>

    <edge id=":1_0" function="internal">
        <lane id=":1_0_0" index="0" speed="13.89" length="8.81" shape="142.00,704.00 142.50,701.54 143.60,700.00 144.70,698.46 145.20,696.00"/>
        <lane id=":1_0_1" index="1" speed="13.89" length="8.81" shape="145.20,704.00 145.70,701.54 146.80,700.00 147.90,698.46 148.40,696.00"/>
    </edge>
    <edge id=":1_2" function="internal">
        <lane id=":1_2_0" index="0" speed="13.89" length="8.54" shape="154.80,696.00 155.30,698.46 156.40,700.00 157.50,701.54 158.00,704.00"/>
        <lane id=":1_2_1" index="1" speed="13.89" length="8.54" shape="151.60,696.00 152.10,698.46 153.20,700.00 154.30,701.54 154.80,704.00"/>
        <lane id=":1_2_2" index="2" speed="13.89" length="8.54" shape="151.60,696.00 151.60,704.00"/>
    </edge>
    <edge id=":10_0" function="internal">
        <lane id=":10_0_0" index="0" speed="13.89" length="8.81" shape="704.00,608.00 701.54,607.50 700.00,606.40 698.46,605.30 696.00,604.80"/>
        <lane id=":10_0_1" index="1" speed="13.89" length="8.81" shape="704.00,604.80 701.54,604.30 700.00,603.20 698.46,602.10 696.00,601.60"/>
    </edge>
    <edge id=":10_2" function="internal">
        <lane id=":10_2_0" index="0" speed="13.89" length="8.54" shape="696.00,595.20 698.46,594.70 700.00,593.60 701.54,592.50 704.00,592.00"/>
        <lane id=":10_2_1" index="1" speed="13.89" length="8.54" shape="696.00,598.40 698.46,597.90 700.00,596.80 701.54,595.70 704.00,595.20"/>
        <lane id=":10_2_2" index="2" speed="13.89" length="8.54" shape="696.00,598.40 704.00,598.40"/>
    </edge>
    <edge id=":11_0" function="internal">
        <lane id=":11_0_0" index="0" speed="13.89" length="8.54" shape="54.00,454.80 51.54,455.30 50.00,456.40 48.46,457.50 46.00,458.00"/>
        <lane id=":11_0_1" index="1" speed="13.89" length="8.54" shape="54.00,451.60 51.54,452.10 50.00,453.20 48.46,454.30 46.00,454.80"/>
        <lane id=":11_0_2" index="2" speed="13.89" length="8.54" shape="54.00,451.60 46.00,451.60"/>
    </edge>
    <edge id=":11_3" function="internal">
        <lane id=":11_3_0" index="0" speed="13.89" length="8.81" shape="46.00,442.00 48.46,442.50 50.00,443.60 51.54,444.70 54.00,445.20"/>
        <lane id=":11_3_1" index="1" speed="13.89" length="8.81" shape="46.00,445.20 48.46,445.70 50.00,446.80 51.54,447.90 54.00,448.40"/>
    </edge>
    <edge id=":12_0" function="internal">
        <lane id=":12_0_0" index="0" speed="6.51" length="9.03" shape="145.20,460.40 144.85,457.95 143.80,456.20 142.05,455.15 139.60,454.80"/>
    </edge>
    <edge id=":12_1" function="internal">
        <lane id=":12_1_0" index="0" speed="13.89" length="20.80" shape="145.20,460.40 145.20,439.60"/>
        <lane id=":12_1_1" index="1" speed="13.89" length="20.80" shape="148.40,460.40 148.40,439.60"/>
    </edge>
    <edge id=":12_3" function="internal">
        <lane id=":12_3_0" index="0" speed="9.26" length="5.01" shape="148.40,460.40 149.11,455.44"/>
    </edge>
    <edge id=":12_16" function="internal">
        <lane id=":12_16_0" index="0" speed="9.26" length="14.34" shape="149.11,455.44 149.15,455.15 151.40,451.40 155.15,449.15 160.40,448.40"/>
    </edge>
    <edge id=":12_4" function="internal">
        <lane id=":12_4_0" index="0" speed="6.51" length="9.03" shape="160.40,454.80 157.95,455.15 156.20,456.20 155.15,457.95 154.80,460.40"/>
    </edge>
    <edge id=":12_5" function="internal">
        <lane id=":12_5_0" index="0" speed="13.89" length="20.80" shape="160.40,454.80 139.60,454.80"/>
        <lane id=":12_5_1" index="1" speed="13.89" length="20.80" shape="160.40,451.60 139.60,451.60"/>
    </edge>
    <edge id=":12_7" function="internal">
        <lane id=":12_7_0" index="0" speed="9.26" length="5.01" shape="160.40,451.60 155.44,450.89"/>
    </edge>
    <edge id=":12_17" function="internal">
        <lane id=":12_17_0" index="0" speed="9.26" length="14.34" shape="155.44,450.89 155.15,450.85 151.40,448.60 149.15,444.85 148.40,439.60"/>
    </edge>
    <edge id=":12_8" function="internal">
        <lane id=":12_8_0" index="0" speed="6.51" length="9.03" shape="154.80,439.60 155.15,442.05 156.20,443.80 157.95,444.85 160.40,445.20"/>
    </edge>
    <edge id=":12_9" function="internal">
        <lane id=":12_9_0" index="0" speed="13.89" length="20.80" shape="154.80,439.60 154.80,460.40"/>
        <lane id=":12_9_1" index="1" speed="13.89" length="20.80" shape="151.60,439.60 151.60,460.40"/>
    </edge>
    <edge id=":12_11" function="internal">
        <lane id=":12_11_0" index="0" speed="9.26" length="5.01" shape="151.60,439.60 150.89,444.56"/>
    </edge>
    <edge id=":12_18" function="internal">
        <lane id=":12_18_0" index="0" speed="9.26" length="14.34" shape="150.89,444.56 150.85,444.85 148.60,448.60 144.85,450.85 139.60,451.60"/>
    </edge>
    <edge id=":12_12" function="internal">
        <lane id=":12_12_0" index="0" speed="6.51" length="9.03" shape="139.60,445.20 142.05,444.85 143.80,443.80 144.85,442.05 145.20,439.60"/>
    </edge>
    <edge id=":12_13" function="internal">
        <lane id=":12_13_0" index="0" speed="13.89" length="20.80" shape="139.60,445.20 160.40,445.20"/>
        <lane id=":12_13_1" index="1" speed="13.89" length="20.80" shape="139.60,448.40 160.40,448.40"/>
    </edge>
    <edge id=":12_15" function="internal">
        <lane id=":12_15_0" index="0" speed="9.26" length="5.01" shape="139.60,448.40 144.56,449.11"/>
    </edge>
    <edge id=":12_19" function="internal">
        <lane id=":12_19_0" index="0" speed="9.26" length="14.34" shape="144.56,449.11 144.85,449.15 148.60,451.40 150.85,455.15 151.60,460.40"/>
    </edge>
    <edge id=":13_0" function="internal">
        <lane id=":13_0_0" index="0" speed="6.51" length="9.03" shape="295.20,460.40 294.85,457.95 293.80,456.20 292.05,455.15 289.60,454.80"/>
    </edge>
    <edge id=":13_1" function="internal">
        <lane id=":13_1_0" index="0" speed="13.89" length="20.80" shape="295.20,460.40 295.20,439.60"/>
        <lane id=":13_1_1" index="1" speed="13.89" length="20.80" shape="298.40,460.40 298.40,439.60"/>
    </edge>
    <edge id=":13_3" function="internal">
        <lane id=":13_3_0" index="0" speed="9.26" length="5.01" shape="298.40,460.40 299.11,455.44"/>
    </edge>
    <edge id=":13_16" function="internal">
        <lane id=":13_16_0" index="0" speed="9.26" length="14.34" shape="299.11,455.44 299.15,455.15 301.40,451.40 305.15,449.15 310.40,448.40"/>
    </edge>
    <edge id=":13_4" function="internal">
        <lane id=":13_4_0" index="0" speed="6.51" length="9.03" shape="310.40,454.80 307.95,455.15 306.20,456.20 305.15,457.95 304.80,460.40"/>
    </edge>
    <edge id=":13_5" function="internal">
        <lane id=":13_5_0" index="0" speed="13.89" length="20.80" shape="310.40,454.80 289.60,454.80"/>
        <lane id=":13_5_1" index="1" speed="13.89" length="20.80" shape="310.40,451.60 289.60,451.60"/>
    </edge>
    <edge id=":13_7" function="internal">
        <lane id=":13_7_0" index="0" speed="9.26" length="5.01" shape="310.40,451.60 305.44,450.89"/>
    </edge>
    <edge id=":13_17" function="internal">
        <lane id=":13_17_0" index="0" speed="9.26" length="14.34" shape="305.44,450.89 305.15,450.85 301.40,448.60 299.15,444.85 298.40,439.60"/>
    </edge>
    <edge id=":13_8" function="internal">
        <lane id=":13_8_0" index="0" speed="6.51" length="9.03" shape="304.80,439.60 305.15,442.05 306.20,443.80 307.95,444.85 310.40,445.20"/>
    </edge>
    <edge id=":13_9" function="internal">
        <lane id=":13_9_0" index="0" speed="13.89" length="20.80" shape="304.80,439.60 304.80,460.40"/>
        <lane id=":13_9_1" index="1" speed="13.89" length="20.80" shape="301.60,439.60 301.60,460.40"/>
    </edge>
    <edge id=":13_11" function="internal">
        <lane id=":13_11_0" index="0" speed="9.26" length="5.01" shape="301.60,439.60 300.89,444.56"/>
    </edge>
    <edge id=":13_18" function="internal">
        <lane id=":13_18_0" index="0" speed="9.26" length="14.34" shape="300.89,444.56 300.85,444.85 298.60,448.60 294.85,450.85 289.60,451.60"/>
    </edge>
    <edge id=":13_12" function="internal">
        <lane id=":13_12_0" index="0" speed="6.51" length="9.03" shape="289.60,445.20 292.05,444.85 293.80,443.80 294.85,442.05 295.20,439.60"/>
    </edge>
    <edge id=":13_13" function="internal">
        <lane id=":13_13_0" index="0" speed="13.89" length="20.80" shape="289.60,445.20 310.40,445.20"/>
        <lane id=":13_13_1" index="1" speed="13.89" length="20.80" shape="289.60,448.40 310.40,448.40"/>
    </edge>
    <edge id=":13_15" function="internal">
        <lane id=":13_15_0" index="0" speed="9.26" length="5.01" shape="289.60,448.40 294.56,449.11"/>
    </edge>
    <edge id=":13_19" function="internal">
        <lane id=":13_19_0" index="0" speed="9.26" length="14.34" shape="294.56,449.11 294.85,449.15 298.60,451.40 300.85,455.15 301.60,460.40"/>
    </edge>
    <edge id=":14_0" function="internal">
        <lane id=":14_0_0" index="0" speed="6.51" length="9.03" shape="445.20,460.40 444.85,457.95 443.80,456.20 442.05,455.15 439.60,454.80"/>
    </edge>
    <edge id=":14_1" function="internal">
        <lane id=":14_1_0" index="0" speed="13.89" length="20.80" shape="445.20,460.40 445.20,439.60"/>
        <lane id=":14_1_1" index="1" speed="13.89" length="20.80" shape="448.40,460.40 448.40,439.60"/>
    </edge>
    <edge id=":14_3" function="internal">
        <lane id=":14_3_0" index="0" speed="9.26" length="5.01" shape="448.40,460.40 449.11,455.44"/>
    </edge>
    <edge id=":14_16" function="internal">
        <lane id=":14_16_0" index="0" speed="9.26" length="14.34" shape="449.11,455.44 449.15,455.15 451.40,451.40 455.15,449.15 460.40,448.40"/>
    </edge>
    <edge id=":14_4" function="internal">
        <lane id=":14_4_0" index="0" speed="6.51" length="9.03" shape="460.40,454.80 457.95,455.15 456.20,456.20 455.15,457.95 454.80,460.40"/>
    </edge>
    <edge id=":14_5" function="internal">
        <lane id=":14_5_0" index="0" speed="13.89" length="20.80" shape="460.40,454.80 439.60,454.80"/>
        <lane id=":14_5_1" index="1" speed="13.89" length="20.80" shape="460.40,451.60 439.60,451.60"/>
    </edge>
    <edge id=":14_7" function="internal">
        <lane id=":14_7_0" index="0" speed="9.26" length="5.01" shape="460.40,451.60 455.44,450.89"/>
    </edge>
    <edge id=":14_17" function="internal">
        <lane id=":14_17_0" index="0" speed="9.26" length="14.34" shape="455.44,450.89 455.15,450.85 451.40,448.60 449.15,444.85 448.40,439.60"/>
    </edge>
    <edge id=":14_8" function="internal">
        <lane id=":14_8_0" index="0" speed="6.51" length="9.03" shape="454.80,439.60 455.15,442.05 456.20,443.80 457.95,444.85 460.40,445.20"/>
    </edge>
    <edge id=":14_9" function="internal">
        <lane id=":14_9_0" index="0" speed="13.89" length="20.80" shape="454.80,439.60 454.80,460.40"/>
        <lane id=":14_9_1" index="1" speed="13.89" length="20.80" shape="451.60,439.60 451.60,460.40"/>
    </edge>
    <edge id=":14_11" function="internal">
        <lane id=":14_11_0" index="0" speed="9.26" length="5.01" shape="451.60,439.60 450.89,444.56"/>
    </edge>
    <edge id=":14_18" function="internal">
        <lane id=":14_18_0" index="0" speed="9.26" length="14.34" shape="450.89,444.56 450.85,444.85 448.60,448.60 444.85,450.85 439.60,451.60"/>
    </edge>
    <edge id=":14_12" function="internal">
        <lane id=":14_12_0" index="0" speed="6.51" length="9.03" shape="439.60,445.20 442.05,444.85 443.80,443.80 444.85,442.05 445.20,439.60"/>
    </edge>
    <edge id=":14_13" function="internal">
        <lane id=":14_13_0" index="0" speed="13.89" length="20.80" shape="439.60,445.20 460.40,445.20"/>
        <lane id=":14_13_1" index="1" speed="13.89" length="20.80" shape="439.60,448.40 460.40,448.40"/>
    </edge>
    <edge id=":14_15" function="internal">
        <lane id=":14_15_0" index="0" speed="9.26" length="5.01" shape="439.60,448.40 444.56,449.11"/>
    </edge>
    <edge id=":14_19" function="internal">
        <lane id=":14_19_0" index="0" speed="9.26" length="14.34" shape="444.56,449.11 444.85,449.15 448.60,451.40 450.85,455.15 451.60,460.40"/>
    </edge>
    <edge id=":15_0" function="internal">
        <lane id=":15_0_0" index="0" speed="6.51" length="9.03" shape="595.20,460.40 594.85,457.95 593.80,456.20 592.05,455.15 589.60,454.80"/>
    </edge>
    <edge id=":15_1" function="internal">
        <lane id=":15_1_0" index="0" speed="13.89" length="20.80" shape="595.20,460.40 595.20,439.60"/>
        <lane id=":15_1_1" index="1" speed="13.89" length="20.80" shape="598.40,460.40 598.40,439.60"/>
    </edge>
    <edge id=":15_3" function="internal">
        <lane id=":15_3_0" index="0" speed="9.26" length="5.01" shape="598.40,460.40 599.11,455.44"/>
    </edge>
    <edge id=":15_16" function="internal">
        <lane id=":15_16_0" index="0" speed="9.26" length="14.34" shape="599.11,455.44 599.15,455.15 601.40,451.40 605.15,449.15 610.40,448.40"/>
    </edge>
    <edge id=":15_4" function="internal">
        <lane id=":15_4_0" index="0" speed="6.51" length="9.03" shape="610.40,454.80 607.95,455.15 606.20,456.20 605.15,457.95 604.80,460.40"/>
    </edge>
    <edge id=":15_5" function="internal">
        <lane id=":15_5_0" index="0" speed="13.89" length="20.80" shape="610.40,454.80 589.60,454.80"/>
        <lane id=":15_5_1" index="1" speed="13.89" length="20.80" shape="610.40,451.60 589.60,451.60"/>
    </edge>
    <edge id=":15_7" function="internal">
        <lane id=":15_7_0" index="0" speed="9.26" length="5.01" shape="610.40,451.60 605.44,450.89"/>
    </edge>
    <edge id=":15_17" function="internal">
        <lane id=":15_17_0" index="0" speed="9.26" length="14.34" shape="605.44,450.89 605.15,450.85 601.40,448.60 599.15,444.85 598.40,439.60"/>
    </edge>
    <edge id=":15_8" function="internal">
        <lane id=":15_8_0" index="0" speed="6.51" length="9.03" shape="604.80,439.60 605.15,442.05 606.20,443.80 607.95,444.85 610.40,445.20"/>
    </edge>
    <edge id=":15_9" function="internal">
        <lane id=":15_9_0" index="0" speed="13.89" length="20.80" shape="604.80,439.60 604.80,460.40"/>
        <lane id=":15_9_1" index="1" speed="13.89" length="20.80" shape="601.60,439.60 601.60,460.40"/>
    </edge>
    <edge id=":15_11" function="internal">
        <lane id=":15_11_0" index="0" speed="9.26" length="5.01" shape="601.60,439.60 600.89,444.56"/>
    </edge>
    <edge id=":15_18" function="internal">
        <lane id=":15_18_0" index="0" speed="9.26" length="14.34" shape="600.89,444.56 600.85,444.85 598.60,448.60 594.85,450.85 589.60,451.60"/>
    </edge>
    <edge id=":15_12" function="internal">
        <lane id=":15_12_0" index="0" speed="6.51" length="9.03" shape="589.60,445.20 592.05,444.85 593.80,443.80 594.85,442.05 595.20,439.60"/>
    </edge>
    <edge id=":15_13" function="internal">
        <lane id=":15_13_0" index="0" speed="13.89" length="20.80" shape="589.60,445.20 610.40,445.20"/>
        <lane id=":15_13_1" index="1" speed="13.89" length="20.80" shape="589.60,448.40 610.40,448.40"/>
    </edge>
    <edge id=":15_15" function="internal">
        <lane id=":15_15_0" index="0" speed="9.26" length="5.01" shape="589.60,448.40 594.56,449.11"/>
    </edge>
    <edge id=":15_19" function="internal">
        <lane id=":15_19_0" index="0" speed="9.26" length="14.34" shape="594.56,449.11 594.85,449.15 598.60,451.40 600.85,455.15 601.60,460.40"/>
    </edge>
    <edge id=":16_0" function="internal">
        <lane id=":16_0_0" index="0" speed="13.89" length="8.81" shape="704.00,458.00 701.54,457.50 700.00,456.40 698.46,455.30 696.00,454.80"/>
        <lane id=":16_0_1" index="1" speed="13.89" length="8.81" shape="704.00,454.80 701.54,454.30 700.00,453.20 698.46,452.10 696.00,451.60"/>
    </edge>
    <edge id=":16_2" function="internal">
        <lane id=":16_2_0" index="0" speed="13.89" length="8.54" shape="696.00,445.20 698.46,444.70 700.00,443.60 701.54,442.50 704.00,442.00"/>
        <lane id=":16_2_1" index="1" speed="13.89" length="8.54" shape="696.00,448.40 698.46,447.90 700.00,446.80 701.54,445.70 704.00,445.20"/>
        <lane id=":16_2_2" index="2" speed="13.89" length="8.54" shape="696.00,448.40 704.00,448.40"/>
    </edge>
    <edge id=":17_0" function="internal">
        <lane id=":17_0_0" index="0" speed="13.89" length="8.54" shape="54.00,304.80 51.54,305.30 50.00,306.40 48.46,307.50 46.00,308.00"/>
        <lane id=":17_0_1" index="1" speed="13.89" length="8.54" shape="54.00,301.60 51.54,302.10 50.00,303.20 48.46,304.30 46.00,304.80"/>
        <lane id=":17_0_2" index="2" speed="13.89" length="8.54" shape="54.00,301.60 46.00,301.60"/>
    </edge>
    <edge id=":17_3" function="internal">
        <lane id=":17_3_0" index="0" speed="13.89" length="8.81" shape="46.00,292.00 48.46,292.50 50.00,293.60 51.54,294.70 54.00,295.20"/>
        <lane id=":17_3_1" index="1" speed="13.89" length="8.81" shape="46.00,295.20 48.46,295.70 50.00,296.80 51.54,297.90 54.00,298.40"/>
    </edge>
    <edge id=":18_0" function="internal">
        <lane id=":18_0_0" index="0" speed="6.51" length="9.03" shape="145.20,310.40 144.85,307.95 143.80,306.20 142.05,305.15 139.60,304.80"/>
    </edge>
    <edge id=":18_1" function="internal">
        <lane id=":18_1_0" index="0" speed="13.89" length="20.80" shape="145.20,310.40 145.20,289.60"/>
        <lane id=":18_1_1" index="1" speed="13.89" length="20.80" shape="148.40,310.40 148.40,289.60"/>
    </edge>
    <edge id=":18_3" function="internal">
        <lane id=":18_3_0" index="0" speed="9.26" length="5.01" shape="148.40,310.40 149.11,305.44"/>
    </edge>
    <edge id=":18_16" function="internal">
        <lane id=":18_16_0" index="0" speed="9.26" length="14.34" shape="149.11,305.44 149.15,305.15 151.40,301.40 155.15,299.15 160.40,298.40"/>
    </edge>
    <edge id=":18_4" function="internal">
        <lane id=":18_4_0" index="0" speed="6.51" length="9.03" shape="160.40,304.80 157.95,305.15 156.20,306.20 155.15,307.95 154.80,310.40"/>
    </edge>
    <edge id=":18_5" function="internal">
        <lane id=":18_5_0" index="0" speed="13.89" length="20.80" shape="160.40,304.80 139.60,304.80"/>
        <lane id=":18_5_1" index="1" speed="13.89" length="20.80" shape="160.40,301.60 139.60,301.60"/>
    </edge>
    <edge id=":18_7" function="internal">
        <lane id=":18_7_0" index="0" speed="9.26" length="5.01" shape="160.40,301.60 155.44,300.89"/>
    </edge>
    <edge id=":18_17" function="internal">
        <lane id=":18_17_0" index="0" speed="9.26" length="14.34" shape="155.44,300.89 155.15,300.85 151.40,298.60 149.15,294.85 148.40,289.60"/>
    </edge>
    <edge id=":18_8" function="internal">
        <lane id=":18_8_0" index="0" speed="6.51" length="9.03" shape="154.80,289.60 155.15,292.05 156.20,293.80 157.95,294.85 160.40,295.20"/>
    </edge>
    <edge id=":18_9" function="internal">
        <lane id=":18_9_0" index="0" speed="13.89" length="20.80" shape="154.80,289.60 154.80,310.40"/>
        <lane id=":18_9_1" index="1" speed="13.89" length="20.80" shape="151.60,289.60 151.60,310.40"/>
    </edge>
    <edge id=":18_11" function="internal">
        <lane id=":18_11_0" index="0" speed="9.26" length="5.01" shape="151.60,289.60 150.89,294.56"/>
    </edge>
    <edge id=":18_18" function="internal">
        <lane id=":18_18_0" index="0" speed="9.26" length="14.34" shape="150.89,294.56 150.85,294.85 148.60,298.60 144.85,300.85 139.60,301.60"/>
    </edge>
    <edge id=":18_12" function="internal">
        <lane id=":18_12_0" index="0" speed="6.51" length="9.03" shape="139.60,295.20 142.05,294.85 143.80,293.80 144.85,292.05 145.20,289.60"/>
    </edge>
    <edge id=":18_13" function="internal">
        <lane id=":18_13_0" index="0" speed="13.89" length="20.80" shape="139.60,295.20 160.40,295.20"/>
        <lane id=":18_13_1" index="1" speed="13.89" length="20.80" shape="139.60,298.40 160.40,298.40"/>
    </edge>
    <edge id=":18_15" function="internal">
        <lane id=":18_15_0" index="0" speed="9.26" length="5.01" shape="139.60,298.40 144.56,299.11"/>
    </edge>
    <edge id=":18_19" function="internal">
        <lane id=":18_19_0" index="0" speed="9.26" length="14.34" shape="144.56,299.11 144.85,299.15 148.60,301.40 150.85,305.15 151.60,310.40"/>
    </edge>
    <edge id=":19_0" function="internal">
        <lane id=":19_0_0" index="0" speed="6.51" length="9.03" shape="295.20,310.40 294.85,307.95 293.80,306.20 292.05,305.15 289.60,304.80"/>
    </edge>
    <edge id=":19_1" function="internal">
        <lane id=":19_1_0" index="0" speed="13.89" length="20.80" shape="295.20,310.40 295.20,289.60"/>
        <lane id=":19_1_1" index="1" speed="13.89" length="20.80" shape="298.40,310.40 298.40,289.60"/>
    </edge>
    <edge id=":19_3" function="internal">
        <lane id=":19_3_0" index="0" speed="9.26" length="5.01" shape="298.40,310.40 299.11,305.44"/>
    </edge>
    <edge id=":19_16" function="internal">
        <lane id=":19_16_0" index="0" speed="9.26" length="14.34" shape="299.11,305.44 299.15,305.15 301.40,301.40 305.15,299.15 310.40,298.40"/>
    </edge>
    <edge id=":19_4" function="internal">
        <lane id=":19_4_0" index="0" speed="6.51" length="9.03" shape="310.40,304.80 307.95,305.15 306.20,306.20 305.15,307.95 304.80,310.40"/>
    </edge>
    <edge id=":19_5" function="internal">
        <lane id=":19_5_0" index="0" speed="13.89" length="20.80" shape="310.40,304.80 289.60,304.80"/>
        <lane id=":19_5_1" index="1" speed="13.89" length="20.80" shape="310.40,301.60 289.60,301.60"/>
    </edge>
    <edge id=":19_7" function="internal">
        <lane id=":19_7_0" index="0" speed="9.26" length="5.01" shape="310.40,301.60 305.44,300.89"/>
    </edge>
    <edge id=":19_17" function="internal">
        <lane id=":19_17_0" index="0" speed="9.26" length="14.34" shape="305.44,300.89 305.15,300.85 301.40,298.60 299.15,294.85 298.40,289.60"/>
    </edge>
    <edge id=":19_8" function="internal">
        <lane id=":19_8_0" index="0" speed="6.51" length="9.03" shape="304.80,289.60 305.15,292.05 306.20,293.80 307.95,294.85 310.40,295.20"/>
    </edge>
    <edge id=":19_9" function="internal">
        <lane id=":19_9_0" index="0" speed="13.89" length="20.80" shape="304.80,289.60 304.80,310.40"/>
        <lane id=":19_9_1" index="1" speed="13.89" length="20.80" shape="301.60,289.60 301.60,310.40"/>
    </edge>
    <edge id=":19_11" function="internal">
        <lane id=":19_11_0" index="0" speed="9.26" length="5.01" shape="301.60,289.60 300.89,294.56"/>
    </edge>
    <edge id=":19_18" function="internal">
        <lane id=":19_18_0" index="0" speed="9.26" length="14.34" shape="300.89,294.56 300.85,294.85 298.60,298.60 294.85,300.85 289.60,301.60"/>
    </edge>
    <edge id=":19_12" function="internal">
        <lane id=":19_12_0" index="0" speed="6.51" length="9.03" shape="289.60,295.20 292.05,294.85 293.80,293.80 294.85,292.05 295.20,289.60"/>
    </edge>
    <edge id=":19_13" function="internal">
        <lane id=":19_13_0" index="0" speed="13.89" length="20.80" shape="289.60,295.20 310.40,295.20"/>
        <lane id=":19_13_1" index="1" speed="13.89" length="20.80" shape="289.60,298.40 310.40,298.40"/>
    </edge>
    <edge id=":19_15" function="internal">
        <lane id=":19_15_0" index="0" speed="9.26" length="5.01" shape="289.60,298.40 294.56,299.11"/>
    </edge>
    <edge id=":19_19" function="internal">
        <lane id=":19_19_0" index="0" speed="9.26" length="14.34" shape="294.56,299.11 294.85,299.15 298.60,301.40 300.85,305.15 301.60,310.40"/>
    </edge>
    <edge id=":2_0" function="internal">
        <lane id=":2_0_0" index="0" speed="13.89" length="8.81" shape="292.00,704.00 292.50,701.54 293.60,700.00 294.70,698.46 295.20,696.00"/>
        <lane id=":2_0_1" index="1" speed="13.89" length="8.81" shape="295.20,704.00 295.70,701.54 296.80,700.00 297.90,698.46 298.40,696.00"/>
    </edge>
    <edge id=":2_2" function="internal">
        <lane id=":2_2_0" index="0" speed="13.89" length="8.54" shape="304.80,696.00 305.30,698.46 306.40,700.00 307.50,701.54 308.00,704.00"/>
        <lane id=":2_2_1" index="1" speed="13.89" length="8.54" shape="301.60,696.00 302.10,698.46 303.20,700.00 304.30,701.54 304.80,704.00"/>
        <lane id=":2_2_2" index="2" speed="13.89" length="8.54" shape="301.60,696.00 301.60,704.00"/>
    </edge>
    <edge id=":20_0" function="internal">
        <lane id=":20_0_0" index="0" speed="6.51" length="9.03" shape="445.20,310.40 444.85,307.95 443.80,306.20 442.05,305.15 439.60,304.80"/>
    </edge>
    <edge id=":20_1" function="internal">
        <lane id=":20_1_0" index="0" speed="13.89" length="20.80" shape="445.20,310.40 445.20,289.60"/>
        <lane id=":20_1_1" index="1" speed="13.89" length="20.80" shape="448.40,310.40 448.40,289.60"/>
    </edge>
    <edge id=":20_3" function="internal">
        <lane id=":20_3_0" index="0" speed="9.26" length="5.01" shape="448.40,310.40 449.11,305.44"/>
    </edge>
    <edge id=":20_16" function="internal">
        <lane id=":20_16_0" index="0" speed="9.26" length="14.34" shape="449.11,305.44 449.15,305.15 451.40,301.40 455.15,299.15 460.40,298.40"/>
    </edge>
    <edge id=":20_4" function="internal">
        <lane id=":20_4_0" index="0" speed="6.51" length="9.03" shape="460.40,304.80 457.95,305.15 456.20,306.20 455.15,307.95 454.80,310.40"/>
    </edge>
    <edge id=":20_5" function="internal">
        <lane id=":20_5_0" index="0" speed="13.89" length="20.80" shape="460.40,304.80 439.60,304.80"/>
        <lane id=":20_5_1" index="1" speed="13.89" length="20.80" shape="460.40,301.60 439.60,301.60"/>
    </edge>
    <edge id=":20_7" function="internal">
        <lane id=":20_7_0" index="0" speed="9.26" length="5.01" shape="460.40,301.60 455.44,300.89"/>
    </edge>
    <edge id=":20_17" function="internal">
        <lane id=":20_17_0" index="0" speed="9.26" length="14.34" shape="455.44,300.89 455.15,300.85 451.40,298.60 449.15,294.85 448.40,289.60"/>
    </edge>
    <edge id=":20_8" function="internal">
        <lane id=":20_8_0" index="0" speed="6.51" length="9.03" shape="454.80,289.60 455.15,292.05 456.20,293.80 457.95,294.85 460.40,295.20"/>
    </edge>
    <edge id=":20_9" function="internal">
        <lane id=":20_9_0" index="0" speed="13.89" length="20.80" shape="454.80,289.60 454.80,310.40"/>
        <lane id=":20_9_1" index="1" speed="13.89" length="20.80" shape="451.60,289.60 451.60,310.40"/>
    </edge>
    <edge id=":20_11" function="internal">
        <lane id=":20_11_0" index="0" speed="9.26" length="5.01" shape="451.60,289.60 450.89,294.56"/>
    </edge>
    <edge id=":20_18" function="internal">
        <lane id=":20_18_0" index="0" speed="9.26" length="14.34" shape="450.89,294.56 450.85,294.85 448.60,298.60 444.85,300.85 439.60,301.60"/>
    </edge>
    <edge id=":20_12" function="internal">
        <lane id=":20_12_0" index="0" speed="6.51" length="9.03" shape="439.60,295.20 442.05,294.85 443.80,293.80 444.85,292.05 445.20,289.60"/>
    </edge>
    <edge id=":20_13" function="internal">
        <lane id=":20_13_0" index="0" speed="13.89" length="20.80" shape="439.60,295.20 460.40,295.20"/>
        <lane id=":20_13_1" index="1" speed="13.89" length="20.80" shape="439.60,298.40 460.40,298.40"/>
    </edge>
    <edge id=":20_15" function="internal">
        <lane id=":20_15_0" index="0" speed="9.26" length="5.01" shape="439.60,298.40 444.56,299.11"/>
    </edge>
    <edge id=":20_19" function="internal">
        <lane id=":20_19_0" index="0" speed="9.26" length="14.34" shape="444.56,299.11 444.85,299.15 448.60,301.40 450.85,305.15 451.60,310.40"/>
    </edge>
    <edge id=":21_0" function="internal">
        <lane id=":21_0_0" index="0" speed="6.51" length="9.03" shape="595.20,310.40 594.85,307.95 593.80,306.20 592.05,305.15 589.60,304.80"/>
    </edge>
    <edge id=":21_1" function="internal">
        <lane id=":21_1_0" index="0" speed="13.89" length="20.80" shape="595.20,310.40 595.20,289.60"/>
        <lane id=":21_1_1" index="1" speed="13.89" length="20.80" shape="598.40,310.40 598.40,289.60"/>
    </edge>
    <edge id=":21_3" function="internal">
        <lane id=":21_3_0" index="0" speed="9.26" length="5.01" shape="598.40,310.40 599.11,305.44"/>
    </edge>
    <edge id=":21_16" function="internal">