<?xml version="1.0" encoding="UTF-8"?>

<!-- generated on 2025-05-20 04:48:51 by Eclipse SUMO netedit Version 1.23.1
<neteditConfiguration xmlns:xsi="http://www.w3.org/2001/XMLSchema-instance" xsi:noNamespaceSchemaLocation="http://sumo.dlr.de/xsd/neteditConfiguration.xsd">

    <input>
        <sumo-net-file value="C:\Users\trose\Workspace\Fellowship &apos;25 Personal\2025-Fellowship-Personal\SUMO\Built Sims\3x3 city block 1\threebythreecityblock1.net.xml"/>
    </input>

    <output>
        <output-file value="C:\Users\trose\Workspace\Fellowship &apos;25 Personal\2025-Fellowship-Personal\SUMO\Built Sims\3x3 city block 1\threebythreecityblock1.net.xml"/>
    </output>

    <processing>
        <geometry.min-radius.fix.railways value="false"/>
        <geometry.avoid-overlap value="false"/>
        <geometry.max-grade.fix value="false"/>
        <offset.disable-normalization value="true"/>
        <lefthand value="0"/>
    </processing>

    <junctions>
        <no-turnarounds value="true"/>
        <junctions.corner-detail value="5"/>
        <junctions.limit-turn-speed value="5.50"/>
        <rectangular-lane-cut value="0"/>
    </junctions>

    <pedestrian>
        <walkingareas value="0"/>
    </pedestrian>

</neteditConfiguration>
-->

<net version="1.20" junctionCornerDetail="5" limitTurnSpeed="5.50" avoidOverlap="0" xmlns:xsi="http://www.w3.org/2001/XMLSchema-instance" xsi:noNamespaceSchemaLocation="http://sumo.dlr.de/xsd/net_file.xsd">

    <location netOffset="0.00,0.00" convBoundary="0.00,0.00,750.00,750.00" origBoundary="-10000000000.00,-10000000000.00,10000000000.00,10000000000.00" projParameter="!"/>

    <edge id=":1_0" function="internal">
        <lane id=":1_0_0" index="0" speed="6.51" length="9.03" shape="157.20,601.60 154.75,601.95 153.00,603.00 151.95,604.75 151.60,607.20"/>
    </edge>
    <edge id=":1_1" function="internal">
        <lane id=":1_1_0" index="0" speed="8.00" length="10.30" shape="157.20,601.60 153.35,601.05 150.60,599.40 148.95,596.65"/>
    </edge>
    <edge id=":1_4" function="internal">
        <lane id=":1_4_0" index="0" speed="8.00" length="3.89" shape="148.95,596.65 148.40,592.80"/>
    </edge>
    <edge id=":1_2" function="internal">
        <lane id=":1_2_0" index="0" speed="6.51" length="9.03" shape="142.80,598.40 145.25,598.05 147.00,597.00 148.05,595.25 148.40,592.80"/>
    </edge>
    <edge id=":1_3" function="internal">
        <lane id=":1_3_0" index="0" speed="8.00" length="10.30" shape="142.80,598.40 146.65,598.95 149.40,600.60 151.05,603.35"/>
    </edge>
    <edge id=":1_5" function="internal">
        <lane id=":1_5_0" index="0" speed="8.00" length="3.89" shape="151.05,603.35 151.60,607.20"/>
    </edge>
    <edge id=":10_0" function="internal">
        <lane id=":10_0_0" index="0" speed="6.51" length="9.03" shape="307.20,301.60 304.75,301.95 303.00,303.00 301.95,304.75 301.60,307.20"/>
    </edge>
    <edge id=":10_1" function="internal">
        <lane id=":10_1_0" index="0" speed="8.00" length="10.30" shape="307.20,301.60 303.35,301.05 300.60,299.40 298.95,296.65"/>
    </edge>
    <edge id=":10_4" function="internal">
        <lane id=":10_4_0" index="0" speed="8.00" length="3.89" shape="298.95,296.65 298.40,292.80"/>
    </edge>
    <edge id=":10_2" function="internal">
        <lane id=":10_2_0" index="0" speed="6.51" length="9.03" shape="292.80,298.40 295.25,298.05 297.00,297.00 298.05,295.25 298.40,292.80"/>
    </edge>
    <edge id=":10_3" function="internal">
        <lane id=":10_3_0" index="0" speed="8.00" length="10.30" shape="292.80,298.40 296.65,298.95 299.40,300.60 301.05,303.35"/>
    </edge>
    <edge id=":10_5" function="internal">
        <lane id=":10_5_0" index="0" speed="8.00" length="3.89" shape="301.05,303.35 301.60,307.20"/>
    </edge>
    <edge id=":11_0" function="internal">
        <lane id=":11_0_0" index="0" speed="6.51" length="9.03" shape="448.40,307.20 448.05,304.75 447.00,303.00 445.25,301.95 442.80,301.60"/>
    </edge>
    <edge id=":11_1" function="internal">
        <lane id=":11_1_0" index="0" speed="8.00" length="10.30" shape="448.40,307.20 448.95,303.35 450.60,300.60 453.35,298.95"/>
    </edge>
    <edge id=":11_4" function="internal">
        <lane id=":11_4_0" index="0" speed="8.00" length="3.89" shape="453.35,298.95 457.20,298.40"/>
    </edge>
    <edge id=":11_2" function="internal">
        <lane id=":11_2_0" index="0" speed="6.51" length="9.03" shape="451.60,292.80 451.95,295.25 453.00,297.00 454.75,298.05 457.20,298.40"/>
    </edge>
    <edge id=":11_3" function="internal">
        <lane id=":11_3_0" index="0" speed="8.00" length="10.30" shape="451.60,292.80 451.05,296.65 449.40,299.40 446.65,301.05"/>
    </edge>
    <edge id=":11_5" function="internal">
        <lane id=":11_5_0" index="0" speed="8.00" length="3.89" shape="446.65,301.05 442.80,301.60"/>
    </edge>
    <edge id=":12_0" function="internal">
        <lane id=":12_0_0" index="0" speed="7.33" length="7.46" shape="598.40,304.00 598.95,301.55 600.60,299.80 602.98,298.89"/>
    </edge>
    <edge id=":12_3" function="internal">
        <lane id=":12_3_0" index="0" speed="7.33" length="4.26" shape="602.98,298.89 603.35,298.75 607.20,298.40"/>
    </edge>
    <edge id=":12_1" function="internal">
        <lane id=":12_1_0" index="0" speed="6.51" length="9.03" shape="601.60,292.80 601.95,295.25 603.00,297.00 604.75,298.05 607.20,298.40"/>
    </edge>
    <edge id=":12_2" function="internal">
        <lane id=":12_2_0" index="0" speed="13.89" length="14.40" shape="592.80,298.40 607.20,298.40"/>
    </edge>
    <edge id=":13_0" function="internal">
        <lane id=":13_0_0" index="0" speed="6.51" length="9.03" shape="157.20,151.60 154.75,151.95 153.00,153.00 151.95,154.75 151.60,157.20"/>
    </edge>
    <edge id=":13_1" function="internal">
        <lane id=":13_1_0" index="0" speed="13.89" length="14.40" shape="157.20,151.60 142.80,151.60"/>
    </edge>
    <edge id=":13_2" function="internal">
        <lane id=":13_2_0" index="0" speed="7.33" length="11.73" shape="157.20,151.60 153.35,151.25 150.60,150.20 148.95,148.45 148.40,146.00"/>
    </edge>
    <edge id=":14_0" function="internal">
        <lane id=":14_0_0" index="0" speed="6.51" length="9.03" shape="298.40,157.20 298.05,154.75 297.00,153.00 295.25,151.95 292.80,151.60"/>
    </edge>
    <edge id=":14_1" function="internal">
        <lane id=":14_1_0" index="0" speed="13.89" length="14.40" shape="298.40,157.20 298.40,142.80"/>
    </edge>
    <edge id=":14_2" function="internal">
        <lane id=":14_2_0" index="0" speed="7.33" length="11.73" shape="298.40,157.20 298.75,153.35 299.80,150.60 301.55,148.95 304.00,148.40"/>
    </edge>
    <edge id=":15_0" function="internal">
        <lane id=":15_0_0" index="0" speed="6.51" length="9.03" shape="442.80,148.40 445.25,148.05 447.00,147.00 448.05,145.25 448.40,142.80"/>
    </edge>
    <edge id=":15_1" function="internal">
        <lane id=":15_1_0" index="0" speed="13.89" length="14.40" shape="442.80,148.40 457.20,148.40"/>
    </edge>
    <edge id=":15_2" function="internal">
        <lane id=":15_2_0" index="0" speed="7.33" length="11.73" shape="442.80,148.40 446.65,148.75 449.40,149.80 451.05,151.55 451.60,154.00"/>
    </edge>
    <edge id=":16_0" function="internal">
        <lane id=":16_0_0" index="0" speed="6.51" length="9.03" shape="607.20,151.60 604.75,151.95 603.00,153.00 601.95,154.75 601.60,157.20"/>
    </edge>
    <edge id=":16_1" function="internal">
        <lane id=":16_1_0" index="0" speed="8.00" length="10.30" shape="607.20,151.60 603.35,151.05 600.60,149.40 598.95,146.65"/>
    </edge>
    <edge id=":16_4" function="internal">
        <lane id=":16_4_0" index="0" speed="8.00" length="3.89" shape="598.95,146.65 598.40,142.80"/>
    </edge>
    <edge id=":16_2" function="internal">
        <lane id=":16_2_0" index="0" speed="6.51" length="9.03" shape="592.80,148.40 595.25,148.05 597.00,147.00 598.05,145.25 598.40,142.80"/>
    </edge>
    <edge id=":16_3" function="internal">
        <lane id=":16_3_0" index="0" speed="8.00" length="10.30" shape="592.80,148.40 596.65,148.95 599.40,150.60 601.05,153.35"/>
    </edge>
    <edge id=":16_5" function="internal">
        <lane id=":16_5_0" index="0" speed="8.00" length="3.89" shape="601.05,153.35 601.60,157.20"/>
    </edge>
    <edge id=":2_0" function="internal">
        <lane id=":2_0_0" index="0" speed="6.51" length="9.03" shape="298.40,607.20 298.05,604.75 297.00,603.00 295.25,601.95 292.80,601.60"/>
    </edge>
    <edge id=":2_1" function="internal">
        <lane id=":2_1_0" index="0" speed="8.00" length="10.30" shape="298.40,607.20 298.95,603.35 300.60,600.60 303.35,598.95"/>
    </edge>
    <edge id=":2_4" function="internal">
        <lane id=":2_4_0" index="0" speed="8.00" length="3.89" shape="303.35,598.95 307.20,598.40"/>
    </edge>
    <edge id=":2_2" function="internal">
        <lane id=":2_2_0" index="0" speed="6.51" length="9.03" shape="301.60,592.80 301.95,595.25 303.00,597.00 304.75,598.05 307.20,598.40"/>
    </edge>
    <edge id=":2_3" function="internal">
        <lane id=":2_3_0" index="0" speed="8.00" length="10.30" shape="301.60,592.80 301.05,596.65 299.40,599.40 296.65,601.05"/>
    </edge>
    <edge id=":2_5" function="internal">
        <lane id=":2_5_0" index="0" speed="8.00" length="3.89" shape="296.65,601.05 292.80,601.60"/>
    </edge>
    <edge id=":3_0" function="internal">
        <lane id=":3_0_0" index="0" speed="6.51" length="9.03" shape="442.80,598.40 445.25,598.05 447.00,597.00 448.05,595.25 448.40,592.80"/>
    </edge>
    <edge id=":3_1" function="internal">
        <lane id=":3_1_0" index="0" speed="13.89" length="14.40" shape="442.80,598.40 457.20,598.40"/>
    </edge>
    <edge id=":3_2" function="internal">
        <lane id=":3_2_0" index="0" speed="7.33" length="11.73" shape="442.80,598.40 446.65,598.75 449.40,599.80 451.05,601.55 451.60,604.00"/>
    </edge>
    <edge id=":4_0" function="internal">
        <lane id=":4_0_0" index="0" speed="6.51" length="9.03" shape="592.80,598.40 595.25,598.05 597.00,597.00 598.05,595.25 598.40,592.80"/>
    </edge>
    <edge id=":4_1" function="internal">
        <lane id=":4_1_0" index="0" speed="13.89" length="14.40" shape="592.80,598.40 607.20,598.40"/>
    </edge>
    <edge id=":4_2" function="internal">
        <lane id=":4_2_0" index="0" speed="7.33" length="11.73" shape="592.80,598.40 596.65,598.75 599.40,599.80 601.05,601.55 601.60,604.00"/>
    </edge>
    <edge id=":5_0" function="internal">
        <lane id=":5_0_0" index="0" speed="13.89" length="11.20" shape="148.40,454.00 148.40,442.80"/>
    </edge>
    <edge id=":5_1" function="internal">
        <lane id=":5_1_0" index="0" speed="6.51" length="4.11" shape="148.40,454.00 148.75,451.55 149.59,450.15"/>
    </edge>
    <edge id=":5_4" function="internal">
        <lane id=":5_4_0" index="0" speed="6.51" length="4.93" shape="149.59,450.15 149.80,449.80 151.55,448.75 154.00,448.40"/>
    </edge>
    <edge id=":5_2" function="internal">
        <lane id=":5_2_0" index="0" speed="6.51" length="9.03" shape="142.80,448.40 145.25,448.05 147.00,447.00 148.05,445.25 148.40,442.80"/>
    </edge>
    <edge id=":5_3" function="internal">
        <lane id=":5_3_0" index="0" speed="13.89" length="11.20" shape="142.80,448.40 154.00,448.40"/>
    </edge>
    <edge id=":6_0" function="internal">
        <lane id=":6_0_0" index="0" speed="6.51" length="9.03" shape="301.60,442.80 301.95,445.25 303.00,447.00 304.75,448.05 307.20,448.40"/>
    </edge>
    <edge id=":6_1" function="internal">
        <lane id=":6_1_0" index="0" speed="13.89" length="11.20" shape="301.60,442.80 301.60,454.00"/>
    </edge>
    <edge id=":6_2" function="internal">
        <lane id=":6_2_0" index="0" speed="13.89" length="11.20" shape="296.00,448.40 307.20,448.40"/>
    </edge>
    <edge id=":6_3" function="internal">
        <lane id=":6_3_0" index="0" speed="6.51" length="4.11" shape="296.00,448.40 298.45,448.75 299.85,449.59"/>
    </edge>
    <edge id=":6_4" function="internal">
        <lane id=":6_4_0" index="0" speed="6.51" length="4.93" shape="299.85,449.59 300.20,449.80 301.25,451.55 301.60,454.00"/>
    </edge>
    <edge id=":7_0" function="internal">
        <lane id=":7_0_0" index="0" speed="13.89" length="11.20" shape="448.40,454.00 448.40,442.80"/>
    </edge>
    <edge id=":7_1" function="internal">
        <lane id=":7_1_0" index="0" speed="6.51" length="4.11" shape="448.40,454.00 448.75,451.55 449.59,450.15"/>
    </edge>
    <edge id=":7_4" function="internal">
        <lane id=":7_4_0" index="0" speed="6.51" length="4.93" shape="449.59,450.15 449.80,449.80 451.55,448.75 454.00,448.40"/>
    </edge>
    <edge id=":7_2" function="internal">
        <lane id=":7_2_0" index="0" speed="6.51" length="9.03" shape="442.80,448.40 445.25,448.05 447.00,447.00 448.05,445.25 448.40,442.80"/>
    </edge>
    <edge id=":7_3" function="internal">
        <lane id=":7_3_0" index="0" speed="13.89" length="11.20" shape="442.80,448.40 454.00,448.40"/>
    </edge>
    <edge id=":8_0" function="internal">
        <lane id=":8_0_0" index="0" speed="13.89" length="11.20" shape="598.40,454.00 598.40,442.80"/>
    </edge>
    <edge id=":8_1" function="internal">
        <lane id=":8_1_0" index="0" speed="6.51" length="4.11" shape="598.40,454.00 598.75,451.55 599.59,450.15"/>
    </edge>
    <edge id=":8_4" function="internal">
        <lane id=":8_4_0" index="0" speed="6.51" length="4.93" shape="599.59,450.15 599.80,449.80 601.55,448.75 604.00,448.40"/>
    </edge>
    <edge id=":8_2" function="internal">
        <lane id=":8_2_0" index="0" speed="6.51" length="9.03" shape="592.80,448.40 595.25,448.05 597.00,447.00 598.05,445.25 598.40,442.80"/>
    </edge>
    <edge id=":8_3" function="internal">
        <lane id=":8_3_0" index="0" speed="13.89" length="11.20" shape="592.80,448.40 604.00,448.40"/>
    </edge>
    <edge id=":9_0" function="internal">
        <lane id=":9_0_0" index="0" speed="6.51" length="9.03" shape="148.40,307.20 148.05,304.75 147.00,303.00 145.25,301.95 142.80,301.60"/>
    </edge>
    <edge id=":9_1" function="internal">
        <lane id=":9_1_0" index="0" speed="8.00" length="10.30" shape="148.40,307.20 148.95,303.35 150.60,300.60 153.35,298.95"/>
    </edge>
    <edge id=":9_4" function="internal">
        <lane id=":9_4_0" index="0" speed="8.00" length="3.89" shape="153.35,298.95 157.20,298.40"/>
    </edge>
    <edge id=":9_2" function="internal">
        <lane id=":9_2_0" index="0" speed="6.51" length="9.03" shape="151.60,292.80 151.95,295.25 153.00,297.00 154.75,298.05 157.20,298.40"/>
    </edge>
    <edge id=":9_3" function="internal">
        <lane id=":9_3_0" index="0" speed="8.00" length="10.30" shape="151.60,292.80 151.05,296.65 149.40,299.40 146.65,301.05"/>
    </edge>
    <edge id=":9_5" function="internal">
        <lane id=":9_5_0" index="0" speed="8.00" length="3.89" shape="146.65,301.05 142.80,301.60"/>
    </edge>
    <edge id=":J0_0" function="internal">
        <lane id=":J0_0_0" index="0" speed="13.89" length="0.10" shape="50.00,598.40 50.00,598.40"/>
    </edge>
    <edge id=":J1_0" function="internal">
        <lane id=":J1_0_0" index="0" speed="13.89" length="0.10" shape="50.00,448.40 50.00,448.40"/>
    </edge>
    <edge id=":J10_0" function="internal">
        <lane id=":J10_0_0" index="0" speed="13.89" length="0.10" shape="451.60,700.00 451.60,700.00"/>
    </edge>
    <edge id=":J11_0" function="internal">
        <lane id=":J11_0_0" index="0" speed="13.89" length="0.10" shape="601.60,700.00 601.60,700.00"/>
    </edge>
    <edge id=":J12_0" function="internal">
        <lane id=":J12_0_0" index="0" speed="13.89" length="0.10" shape="148.40,50.00 148.40,50.00"/>
    </edge>
    <edge id=":J13_0" function="internal">
        <lane id=":J13_0_0" index="0" speed="13.89" length="0.10" shape="298.40,50.00 298.40,50.00"/>
    </edge>
    <edge id=":J14_0" function="internal">
        <lane id=":J14_0_0" index="0" speed="13.89" length="0.10" shape="448.40,50.00 448.40,50.00"/>
    </edge>
    <edge id=":J15_0" function="internal">
        <lane id=":J15_0_0" index="0" speed="13.89" length="0.10" shape="598.40,50.00 598.40,50.00"/>
    </edge>
    <edge id=":J2_0" function="internal">
        <lane id=":J2_0_0" index="0" speed="13.89" length="0.10" shape="50.00,301.60 50.00,301.60"/>
    </edge>
    <edge id=":J3_0" function="internal">
        <lane id=":J3_0_0" index="0" speed="13.89" length="0.10" shape="50.00,151.60 50.00,151.60"/>
    </edge>
    <edge id=":J4_0" function="internal">
        <lane id=":J4_0_0" index="0" speed="13.89" length="0.10" shape="700.00,598.40 700.00,598.40"/>
    </edge>
    <edge id=":J5_0" function="internal">
        <lane id=":J5_0_0" index="0" speed="13.89" length="0.10" shape="700.00,448.40 700.00,448.40"/>
    </edge>
    <edge id=":J6_0" function="internal">
        <lane id=":J6_0_0" index="0" speed="13.89" length="0.10" shape="700.00,298.40 700.00,298.40"/>
    </edge>
    <edge id=":J7_0" function="internal">
        <lane id=":J7_0_0" index="0" speed="13.89" length="0.10" shape="700.00,151.60 700.00,151.60"/>
    </edge>
    <edge id=":J8_0" function="internal">
        <lane id=":J8_0_0" index="0" speed="13.89" length="0.10" shape="151.60,700.00 151.60,700.00"/>
    </edge>
    <edge id=":J9_0" function="internal">
        <lane id=":J9_0_0" index="0" speed="13.89" length="0.10" shape="298.40,700.00 298.40,700.00"/>
    </edge>

    <edge id="E0" from="21" to="J0" priority="-1">
        <lane id="E0_0" index="0" speed="13.89" length="50.00" shape="0.00,598.40 50.00,598.40"/>
    </edge>
    <edge id="E0.30" from="J0" to="1" priority="-1">
        <lane id="E0.30_0" index="0" speed="13.89" length="92.80" shape="50.00,598.40 142.80,598.40"/>
    </edge>
    <edge id="E1" from="1" to="5" priority="-1">
        <lane id="E1_0" index="0" speed="13.89" length="138.80" shape="148.40,592.80 148.40,454.00"/>
    </edge>
    <edge id="E10" from="10" to="6" priority="-1">
        <lane id="E10_0" index="0" speed="13.89" length="135.60" shape="301.60,307.20 301.60,442.80"/>
    </edge>
    <edge id="E11" from="6" to="7" priority="-1">
        <lane id="E11_0" index="0" speed="13.89" length="135.60" shape="307.20,448.40 442.80,448.40"/>
    </edge>
    <edge id="E12" from="7" to="11" priority="-1">
        <lane id="E12_0" index="0" speed="13.89" length="135.60" shape="448.40,442.80 448.40,307.20"/>
    </edge>
    <edge id="E13" from="11" to="12" priority="-1">
        <lane id="E13_0" index="0" speed="13.89" length="135.60" shape="457.20,298.40 592.80,298.40"/>
    </edge>
    <edge id="E14" from="1" to="J8" priority="-1">
        <lane id="E14_0" index="0" speed="13.89" length="92.80" shape="151.60,607.20 151.60,700.00"/>
    </edge>
    <edge id="E14.100" from="J8" to="17" priority="-1">
        <lane id="E14.100_0" index="0" speed="13.89" length="50.00" shape="151.60,700.00 151.60,750.00"/>
    </edge>
    <edge id="E15" from="18" to="J9" priority="-1">
        <lane id="E15_0" index="0" speed="13.89" length="50.00" shape="298.40,750.00 298.40,700.00"/>
    </edge>
    <edge id="E15.50" from="J9" to="2" priority="-1">
        <lane id="E15.50_0" index="0" speed="13.89" length="92.80" shape="298.40,700.00 298.40,607.20"/>
    </edge>
    <edge id="E16" from="2" to="1" priority="-1">
        <lane id="E16_0" index="0" speed="13.89" length="135.60" shape="292.80,601.60 157.20,601.60"/>
    </edge>
    <edge id="E17" from="3" to="J10" priority="-1">
        <lane id="E17_0" index="0" speed="13.89" length="96.00" shape="451.60,604.00 451.60,700.00"/>
    </edge>
    <edge id="E17.106" from="J10" to="19" priority="-1">
        <lane id="E17.106_0" index="0" speed="13.89" length="50.00" shape="451.60,700.00 451.60,750.00"/>
    </edge>
    <edge id="E18" from="3" to="4" priority="-1">
        <lane id="E18_0" index="0" speed="13.89" length="135.60" shape="457.20,598.40 592.80,598.40"/>
    </edge>
    <edge id="E19" from="4" to="8" priority="-1">
        <lane id="E19_0" index="0" speed="13.89" length="138.80" shape="598.40,592.80 598.40,454.00"/>
    </edge>
    <edge id="E2" from="5" to="6" priority="-1">
        <lane id="E2_0" index="0" speed="13.89" length="142.00" shape="154.00,448.40 296.00,448.40"/>
    </edge>
    <edge id="E20" from="8" to="12" priority="-1">
        <lane id="E20_0" index="0" speed="13.89" length="138.80" shape="598.40,442.80 598.40,304.00"/>
    </edge>
    <edge id="E21" from="12" to="J6" priority="-1">
        <lane id="E21_0" index="0" speed="13.89" length="92.80" shape="607.20,298.40 700.00,298.40"/>
    </edge>
    <edge id="E21.104" from="J6" to="26" priority="-1">
        <lane id="E21.104_0" index="0" speed="13.89" length="50.00" shape="700.00,298.40 750.00,298.40"/>
    </edge>
    <edge id="E22" from="11" to="10" priority="-1">
        <lane id="E22_0" index="0" speed="13.89" length="135.60" shape="442.80,301.60 307.20,301.60"/>
    </edge>
    <edge id="E23" from="10" to="14" priority="-1">
        <lane id="E23_0" index="0" speed="13.89" length="135.60" shape="298.40,292.80 298.40,157.20"/>
    </edge>
    <edge id="E24" from="14" to="15" priority="-1">
        <lane id="E24_0" index="0" speed="13.89" length="138.80" shape="304.00,148.40 442.80,148.40"/>
    </edge>
    <edge id="E25" from="15" to="11" priority="-1">
        <lane id="E25_0" index="0" speed="13.89" length="138.80" shape="451.60,154.00 451.60,292.80"/>
    </edge>
    <edge id="E26" from="15" to="16" priority="-1">
        <lane id="E26_0" index="0" speed="13.89" length="135.60" shape="457.20,148.40 592.80,148.40"/>
    </edge>
    <edge id="E27" from="16" to="12" priority="-1">
        <lane id="E27_0" index="0" speed="13.89" length="135.60" shape="601.60,157.20 601.60,292.80"/>
    </edge>
    <edge id="E28" from="28" to="J7" priority="-1">
        <lane id="E28_0" index="0" speed="13.89" length="50.00" shape="750.00,151.60 700.00,151.60"/>
    </edge>
    <edge id="E28.42" from="J7" to="16" priority="-1">
        <lane id="E28.42_0" index="0" speed="13.89" length="92.80" shape="700.00,151.60 607.20,151.60"/>
    </edge>
    <edge id="E29" from="16" to="J15" priority="-1">
        <lane id="E29_0" index="0" speed="13.89" length="92.80" shape="598.40,142.80 598.40,50.00"/>
    </edge>
    <edge id="E29.103" from="J15" to="32" priority="-1">
        <lane id="E29.103_0" index="0" speed="13.89" length="50.00" shape="598.40,50.00 598.40,0.00"/>
    </edge>
    <edge id="E3" from="6" to="2" priority="-1">
        <lane id="E3_0" index="0" speed="13.89" length="138.80" shape="301.60,454.00 301.60,592.80"/>
    </edge>
    <edge id="E30" from="15" to="J14" priority="-1">
        <lane id="E30_0" index="0" speed="13.89" length="92.80" shape="448.40,142.80 448.40,50.00"/>
    </edge>
    <edge id="E30.103" from="J14" to="31" priority="-1">
        <lane id="E30.103_0" index="0" speed="13.89" length="50.00" shape="448.40,50.00 448.40,0.00"/>
    </edge>
    <edge id="E31" from="14" to="J13" priority="-1">
        <lane id="E31_0" index="0" speed="13.89" length="92.80" shape="298.40,142.80 298.40,50.00"/>
    </edge>
    <edge id="E31.105" from="J13" to="30" priority="-1">
        <lane id="E31.105_0" index="0" speed="13.89" length="50.00" shape="298.40,50.00 298.40,0.00"/>
    </edge>
    <edge id="E32" from="14" to="13" priority="-1">
        <lane id="E32_0" index="0" speed="13.89" length="135.60" shape="292.80,151.60 157.20,151.60"/>
    </edge>
    <edge id="E33" from="13" to="9" priority="-1">
        <lane id="E33_0" index="0" speed="13.89" length="135.60" shape="151.60,157.20 151.60,292.80"/>
    </edge>
    <edge id="E34" from="9" to="J2" priority="-1">
        <lane id="E34_0" index="0" speed="13.89" length="92.80" shape="142.80,301.60 50.00,301.60"/>
    </edge>
    <edge id="E34.101" from="J2" to="25" priority="-1">
        <lane id="E34.101_0" index="0" speed="13.89" length="50.00" shape="50.00,301.60 0.00,301.60"/>
    </edge>
    <edge id="E35" from="13" to="J3" priority="-1">
        <lane id="E35_0" index="0" speed="13.89" length="92.80" shape="142.80,151.60 50.00,151.60"/>
    </edge>
    <edge id="E35.106" from="J3" to="27" priority="-1">
        <lane id="E35.106_0" index="0" speed="13.89" length="50.00" shape="50.00,151.60 0.00,151.60"/>
    </edge>
    <edge id="E36" from="13" to="J12" priority="-1">
        <lane id="E36_0" index="0" speed="13.89" length="96.00" shape="148.40,146.00 148.40,50.00"/>
    </edge>
    <edge id="E36.102" from="J12" to="29" priority="-1">
        <lane id="E36.102_0" index="0" speed="13.89" length="50.00" shape="148.40,50.00 148.40,0.00"/>
    </edge>
    <edge id="E37" from="8" to="J5" priority="-1">
        <lane id="E37_0" index="0" speed="13.89" length="96.00" shape="604.00,448.40 700.00,448.40"/>
    </edge>
    <edge id="E37.107" from="J5" to="24" priority="-1">
        <lane id="E37.107_0" index="0" speed="13.89" length="50.00" shape="700.00,448.40 750.00,448.40"/>
    </edge>
    <edge id="E38" from="4" to="J4" priority="-1">
        <lane id="E38_0" index="0" speed="13.89" length="92.80" shape="607.20,598.40 700.00,598.40"/>
    </edge>
    <edge id="E38.112" from="J4" to="22" priority="-1">
        <lane id="E38.112_0" index="0" speed="13.89" length="50.00" shape="700.00,598.40 750.00,598.40"/>
    </edge>
    <edge id="E39" from="4" to="J11" priority="-1">
        <lane id="E39_0" index="0" speed="13.89" length="96.00" shape="601.60,604.00 601.60,700.00"/>
    </edge>
    <edge id="E39.103" from="J11" to="20" priority="-1">
        <lane id="E39.103_0" index="0" speed="13.89" length="50.00" shape="601.60,700.00 601.60,750.00"/>
    </edge>
    <edge id="E4" from="2" to="3" priority="-1">
        <lane id="E4_0" index="0" speed="13.89" length="135.60" shape="307.20,598.40 442.80,598.40"/>
    </edge>
    <edge id="E5" from="3" to="7" priority="-1">
        <lane id="E5_0" index="0" speed="13.89" length="138.80" shape="448.40,592.80 448.40,454.00"/>
    </edge>
    <edge id="E6" from="7" to="8" priority="-1">
        <lane id="E6_0" index="0" speed="13.89" length="138.80" shape="454.00,448.40 592.80,448.40"/>
    </edge>
    <edge id="E7" from="23" to="J1" priority="-1">
        <lane id="E7_0" index="0" speed="13.89" length="50.00" shape="0.00,448.40 50.00,448.40"/>
    </edge>
    <edge id="E7.35" from="J1" to="5" priority="-1">
        <lane id="E7.35_0" index="0" speed="13.89" length="92.80" shape="50.00,448.40 142.80,448.40"/>
    </edge>
    <edge id="E8" from="5" to="9" priority="-1">
        <lane id="E8_0" index="0" speed="13.89" length="135.60" shape="148.40,442.80 148.40,307.20"/>
    </edge>
    <edge id="E9" from="9" to="10" priority="-1">
        <lane id="E9_0" index="0" speed="13.89" length="135.60" shape="157.20,298.40 292.80,298.40"/>
    </edge>

    <junction id="1" type="priority" x="150.00" y="600.00" incLanes="E16_0 E0.30_0" intLanes=":1_0_0 :1_4_0 :1_2_0 :1_5_0" shape="150.00,607.20 153.20,607.20 153.64,604.98 154.20,604.20 154.98,603.64 155.98,603.31 157.20,603.20 157.20,600.00 155.00,599.80 153.20,599.20 151.80,598.20 150.80,596.80 150.20,595.00 150.00,592.80 146.80,592.80 146.36,595.02 145.80,595.80 145.02,596.36 144.02,596.69 142.80,596.80 142.80,600.00 145.00,600.20 146.80,600.80 148.20,601.80 149.20,603.20 149.80,605.00">
        <request index="0" response="0000" foes="1000" cont="0"/>
        <request index="1" response="0100" foes="1100" cont="1"/>
        <request index="2" response="0000" foes="0010" cont="0"/>
        <request index="3" response="0011" foes="0011" cont="1"/>
    </junction>
    <junction id="10" type="priority" x="300.00" y="300.00" incLanes="E22_0 E9_0" intLanes=":10_0_0 :10_4_0 :10_2_0 :10_5_0" shape="300.00,307.20 303.20,307.20 303.64,304.98 304.20,304.20 304.98,303.64 305.98,303.31 307.20,303.20 307.20,300.00 305.00,299.80 303.20,299.20 301.80,298.20 300.80,296.80 300.20,295.00 300.00,292.80 296.80,292.80 296.36,295.02 295.80,295.80 295.02,296.36 294.02,296.69 292.80,296.80 292.80,300.00 295.00,300.20 296.80,300.80 298.20,301.80 299.20,303.20 299.80,305.00">
        <request index="0" response="0000" foes="1000" cont="0"/>
        <request index="1" response="1100" foes="1100" cont="1"/>
        <request index="2" response="0000" foes="0010" cont="0"/>
        <request index="3" response="0001" foes="0011" cont="1"/>
    </junction>
    <junction id="11" type="priority" x="450.00" y="300.00" incLanes="E12_0 E25_0" intLanes=":11_0_0 :11_4_0 :11_2_0 :11_5_0" shape="446.80,307.20 450.00,307.20 450.20,305.00 450.80,303.20 451.80,301.80 453.20,300.80 455.00,300.20 457.20,300.00 457.20,296.80 454.98,296.36 454.20,295.80 453.64,295.02 453.31,294.02 453.20,292.80 450.00,292.80 449.80,295.00 449.20,296.80 448.20,298.20 446.80,299.20 445.00,299.80 442.80,300.00 442.80,303.20 445.02,303.64 445.80,304.20 446.36,304.98 446.69,305.98">
        <request index="0" response="0000" foes="1000" cont="0"/>
        <request index="1" response="1100" foes="1100" cont="1"/>
        <request index="2" response="0000" foes="0010" cont="0"/>
        <request index="3" response="0001" foes="0011" cont="1"/>
    </junction>
    <junction id="12" type="priority" x="600.00" y="300.00" incLanes="E20_0 E27_0 E13_0" intLanes=":12_3_0 :12_1_0 :12_2_0" shape="596.80,304.00 600.00,304.00 600.80,301.78 601.80,301.00 603.20,300.44 605.00,300.11 607.20,300.00 607.20,296.80 604.98,296.36 604.20,295.80 603.64,295.02 603.31,294.02 603.20,292.80 600.00,292.80 599.20,295.02 598.20,295.80 596.80,296.36 595.00,296.69 592.80,296.80 592.80,300.00 595.02,300.44 595.80,301.00 596.36,301.78 596.69,302.78">
        <request index="0" response="010" foes="110" cont="1"/>
        <request index="1" response="000" foes="101" cont="0"/>
        <request index="2" response="011" foes="011" cont="0"/>
    </junction>